@<TRIPOS>MOLECULE
ANP
   44    46     1     0     0
SMALL
gas


@<TRIPOS>ATOM
      1 PG          26.2290    -0.2570    15.9220 p5       340 ANP      -0.002544
      2 O1G         24.7800    -0.3780    15.9690 o        340 ANP      -0.642728
      3 O2G         26.8310    -1.4320    16.7520 o        340 ANP      -0.642728
      4 O3G         26.7510    -0.5060    14.5540 o        340 ANP      -0.642728
      5 PB          27.3310     2.4030    15.9110 p5       340 ANP       0.204543
      6 O1B         28.3280     2.9760    16.8180 o        340 ANP      -0.518931
      7 O2B         27.7240     2.7960    14.4900 o        340 ANP      -0.518931
      8 N3B         26.8840     1.0240    16.4870 n7       340 ANP      -0.233631
      9 PA          24.9810     4.0640    16.6750 p5       340 ANP       0.267985
     10 O1A         24.8290     5.3300    15.9240 o        340 ANP      -0.509812
     11 O2A         23.8330     3.1320    16.5910 o        340 ANP      -0.509812
     12 O3A         26.0490     3.0270    16.3450 os       340 ANP      -0.265932
     13 O5'         25.3000     4.4290    18.1700 os       340 ANP      -0.318531
     14 C5'         25.0620     3.5340    19.2810 c3       340 ANP       0.083786
     15 C4'         24.0010     3.9300    20.2590 c5       340 ANP       0.112385
     16 O4'         24.0890     5.3610    20.4580 os       340 ANP      -0.348424
     17 C3'         22.5520     3.6960    19.8520 c5       340 ANP       0.112586
     18 O3'         22.2640     2.2520    19.8610 oh       340 ANP      -0.387437
     19 C2'         21.8590     4.6720    20.8050 c5       340 ANP       0.125684
     20 O2'         21.5630     4.2330    22.1370 oh       340 ANP      -0.385801
     21 C1'         22.8830     5.8450    20.9140 c5       340 ANP       0.158801
     22 N9          22.4340     6.9830    20.1150 na       340 ANP      -0.244482
     23 C8          22.8510     7.2340    18.8490 cc       340 ANP       0.091228
     24 N7          22.3410     8.2370    18.2410 nd       340 ANP      -0.233736
     25 C5          21.5040     8.7020    19.1480 ca       340 ANP       0.145052
     26 C6          20.6710     9.7880    19.0390 ca       340 ANP       0.146191
     27 N6          20.5530    10.5620    17.9660 nv       340 ANP      -0.341286
     28 N1          19.8990    10.0580    20.1020 nb       340 ANP      -0.219504
     29 C2          19.9760     9.2960    21.2350 ca       340 ANP       0.119509
     30 N3          20.7440     8.2530    21.4010 nb       340 ANP      -0.218590
     31 C4          21.4960     7.9780    20.3220 ca       340 ANP       0.158584
     32 HNB1        27.0370     0.9620    17.3070 hn       340 ANP       0.136211
     33 H5'1        25.9100     3.4380    19.7810 h1       340 ANP       0.060057
     34 H5'2        24.8140     2.6500    18.9120 h1       340 ANP       0.060057
     35 H4'         24.1800     3.4760    21.1100 h1       340 ANP       0.065802
     36 H3'         22.4330     4.0290    18.9250 h1       340 ANP       0.065867
     37 HO3'        21.4550     2.1340    19.6330 ho       340 ANP       0.210728
     38 H2'         21.0240     5.0050    20.3810 h1       340 ANP       0.067548
     39 HO2'        21.1820     4.8630    22.5590 ho       340 ANP       0.210814
     40 H1'         22.9640     6.1180    21.8560 h2       340 ANP       0.085432
     41 H8          23.4940     6.6950    18.4210 h5       340 ANP       0.101817
     42 HN61        19.9960    11.2390    17.9770 hn       340 ANP       0.144231
     43 HN62        21.0330    10.3920    17.2520 hn       340 ANP       0.144231
     44 H2          19.4250     9.5460    21.9610 h5       340 ANP       0.106438
@<TRIPOS>BOND
     1     1     2 1   
     2     1     3 1   
     3     1     4 1   
     4     1     8 1   
     5     5     6 1   
     6     5     7 1   
     7     5     8 1   
     8     5    12 1   
     9     8    32 1   
    10     9    10 1   
    11     9    11 1   
    12     9    12 1   
    13     9    13 1   
    14    13    14 1   
    15    14    15 1   
    16    14    33 1   
    17    14    34 1   
    18    15    16 1   
    19    15    17 1   
    20    15    35 1   
    21    16    21 1   
    22    17    18 1   
    23    17    19 1   
    24    17    36 1   
    25    18    37 1   
    26    19    20 1   
    27    19    21 1   
    28    19    38 1   
    29    20    39 1   
    30    21    22 1   
    31    21    40 1   
    32    22    23 1   
    33    22    31 1   
    34    23    24 2   
    35    23    41 1   
    36    24    25 1   
    37    25    26 ar  
    38    25    31 ar  
    39    26    27 1   
    40    26    28 ar  
    41    27    42 1   
    42    27    43 1   
    43    28    29 ar  
    44    29    30 ar  
    45    29    44 1   
    46    30    31 ar  
@<TRIPOS>SUBSTRUCTURE
     1 ANP         1 TEMP              0 ****  ****    0 ROOT
