@<TRIPOS>MOLECULE
SO4
    5     4     1     0     0
SMALL
bcc


@<TRIPOS>ATOM
      1 S           69.1490    56.1250    15.0400 s6         0 SO4       1.389800
      2 O1          68.7500    56.1390    13.5830 o          0 SO4      -0.347200
      3 O2          70.3980    55.3230    15.2020 o          0 SO4      -0.347200
      4 O3          69.4610    57.4720    15.6150 o          0 SO4      -0.347200
      5 O4          68.0260    55.4520    15.7900 o          0 SO4      -0.347200
@<TRIPOS>BOND
     1     1     2 1   
     2     1     3 1   
     3     1     4 1   
     4     1     5 1   
@<TRIPOS>SUBSTRUCTURE
     1 SO4         1 TEMP              0 ****  ****    0 ROOT
