@<TRIPOS>MOLECULE
SO4
   15    12     1     0     0
SMALL
gas


@<TRIPOS>ATOM
      1 S            2.1890    43.0100    -8.6040 s6         1 SO4       0.168969
      2 O1           3.3670    43.1660    -7.7770 o          1 SO4      -0.042242
      3 O2           1.5370    44.3010    -8.3000 o          1 SO4      -0.042242
      4 O3           2.6090    42.9840   -10.0150 o          1 SO4      -0.042242
      5 O4           1.3860    41.8150    -8.2510 o          1 SO4      -0.042242
      6 S            8.9400    30.9730    -9.3900 s6         2 SO4       0.168969
      7 O1           8.2970    30.6770   -10.6510 o          2 SO4      -0.042242
      8 O2           9.0410    29.7670    -8.5730 o          2 SO4      -0.042242
      9 O3          10.2540    31.5070    -9.7340 o          2 SO4      -0.042242
     10 O4           8.0990    32.0330    -8.8410 o          2 SO4      -0.042242
     11 S          -25.7800    58.6570    12.6340 s6         3 SO4       0.168969
     12 O1         -25.4460    57.7040    13.7130 o          3 SO4      -0.042242
     13 O2         -26.1460    59.9720    13.1700 o          3 SO4      -0.042242
     14 O3         -24.6240    58.8480    11.7420 o          3 SO4      -0.042242
     15 O4         -26.9580    58.1660    11.9530 o          3 SO4      -0.042242
@<TRIPOS>BOND
     1     1     2 1   
     2     1     3 1   
     3     1     4 1   
     4     1     5 1   
     5     6     7 1   
     6     6     8 1   
     7     6     9 1   
     8     6    10 1   
     9    11    12 1   
    10    11    13 1   
    11    11    14 1   
    12    11    15 1   
@<TRIPOS>SUBSTRUCTURE
     1 SO4         1 TEMP              0 ****  ****    0 ROOT
